# primitive CIF file created by Jmol 14.29.17  2018-06-15 14:15
data_primitive
_cell_length_a 7.9
_cell_length_b 6.06
_cell_length_c 16.01
_cell_angle_alpha 101.9
_cell_angle_beta 112.6
_cell_angle_gamma 85.8

_symmetry_space_group_name_H-M 'P 1'
loop_
_space_group_symop_operation_xyz
'x,y,z'

loop_
_atom_site_label
_atom_site_fract_x
_atom_site_fract_y
_atom_site_fract_z
C	0.90750   	0.79050   	0.96650   
C	0.94280   	0.90490   	0.90500   
H	0.83800   	0.63801   	0.93900   
C	0.97730   	0.87730   	1.05670   
C	1.02270   	1.12271   	0.94330   
C	0.87261   	0.83500   	0.81060   
C	0.94600   	0.76750   	1.12250   
C	1.05721   	1.09509   	1.09500   
C	1.05399   	1.23249   	0.87750   
C	1.09250   	1.20950   	1.03350   
C	0.89700   	0.93961   	0.74920   
H	0.79799   	0.67900   	0.78200   
C	1.01500   	0.84840   	1.21490   
H	0.87800   	0.60499   	1.09800   
C	1.12741   	1.16501   	1.18940   
C	0.98500   	1.15160   	0.78510   
H	1.12200   	1.39500   	0.90200   
H	1.16200   	1.36200   	1.06100   
C	0.82930   	0.86389   	0.65090   
C	0.98480   	0.73661   	1.27860   
C	1.10300   	1.06040   	1.25080   
H	1.20200   	1.32099   	1.21800   
C	1.01519   	1.26340   	0.72140   
C	0.85160   	0.98170   	0.59290   
H	0.75400   	0.70600   	0.63000   
C	1.05190   	0.82000   	1.37060   
H	0.91500   	0.57300   	1.25100   
C	1.17070   	1.13610   	1.34910   
C	0.94810   	1.18000   	0.62940   
H	1.08501   	1.42701   	0.74900   
H	0.79800   	0.91300   	0.51800   
C	1.14840   	1.01831   	1.40710   
H	1.03300   	0.72800   	1.42000   
H	1.24600   	1.29401   	1.37000   
H	0.96701   	1.27199   	0.58000   
H	1.20199   	1.08700   	1.48200   
C	0.43780   	1.62060   	0.92460   
C	0.51899   	1.39380   	0.91540   
C	0.38970   	1.72571   	0.85170   
C	0.42310   	1.71381   	1.01000   
C	0.57690   	1.28620   	0.99000   
C	0.54180   	1.29900   	0.83140   
C	0.39390   	1.63480   	0.76580   
H	0.32700   	1.89600   	0.85800   
C	0.48100   	1.60620   	1.08460   
H	0.36200   	1.88699   	1.02000   
H	0.63800   	1.11299   	0.98000   
C	0.56220   	1.37940   	1.07540   
C	0.47900   	1.41240   	0.75660   
H	0.59900   	1.12700   	0.82200   
C	0.34510   	1.74300   	0.69060   
C	0.45819   	1.70099   	1.16860   
C	0.61030   	1.27430   	1.14830   
C	0.49650   	1.31951   	0.67140   
C	0.35040   	1.65130   	0.60750   
H	0.28200   	1.91201   	0.69600   
C	0.52100   	1.58760   	1.24340   
H	0.40101   	1.87300   	1.17800   
C	0.60610   	1.36521   	1.23420   
H	0.67299   	1.10400   	1.14200   
C	0.43729   	1.42669   	0.59860   
H	0.55300   	1.14700   	0.66500   
H	0.30000   	1.73500   	0.54700   
C	0.50350   	1.68050   	1.32860   
C	0.65490   	1.25701   	1.30940   
H	0.44700   	1.33900   	0.52500   
C	0.56270   	1.57329   	1.40140   
H	0.44700   	1.85301   	1.33500   
C	0.64960   	1.34869   	1.39250   
H	0.71799   	1.08800   	1.30400   
H	0.55300   	1.66100   	1.47500   
H	0.70001   	1.26501   	1.45300   
